Version 4
SHEET 1 1988 680
WIRE 1632 -48 1056 -48
WIRE 1056 16 1056 -48
WIRE 16 128 -352 128
WIRE 224 128 16 128
WIRE 608 128 560 128
WIRE 720 128 688 128
WIRE 880 128 720 128
WIRE 1056 128 1056 96
WIRE 1056 128 944 128
WIRE 1312 128 1056 128
WIRE 1408 128 1312 128
WIRE 1472 128 1408 128
WIRE 720 160 720 128
WIRE 1056 160 1056 128
WIRE 1312 160 1312 128
WIRE 1408 160 1408 128
WIRE -352 176 -352 128
WIRE 16 176 16 128
WIRE 1632 176 1632 -48
WIRE 224 192 224 128
WIRE 256 192 224 192
WIRE 336 192 304 192
WIRE 416 192 384 192
WIRE 496 192 464 192
WIRE 560 192 560 128
WIRE 560 192 544 192
WIRE 256 240 304 192
WIRE 256 240 224 240
WIRE 304 240 256 192
WIRE 336 240 384 192
WIRE 336 240 304 240
WIRE 384 240 336 192
WIRE 416 240 464 192
WIRE 416 240 384 240
WIRE 464 240 416 192
WIRE 496 240 544 192
WIRE 496 240 464 240
WIRE 544 240 496 192
WIRE 560 240 544 240
WIRE -352 304 -352 256
WIRE 16 304 16 256
WIRE 16 304 -352 304
WIRE 224 304 224 240
WIRE 224 304 16 304
WIRE 560 304 560 240
WIRE 720 304 720 240
WIRE 720 304 560 304
WIRE 1056 304 1056 240
WIRE 1056 304 720 304
WIRE 1312 304 1312 240
WIRE 1312 304 1056 304
WIRE 1408 304 1408 224
WIRE 1408 304 1312 304
WIRE 1632 304 1632 256
WIRE 1632 304 1408 304
WIRE -352 320 -352 304
FLAG -352 320 0
FLAG 1472 128 ADC
SYMBOL voltage -352 160 R0
WINDOW 123 0 0 Left 2
WINDOW 39 0 0 Left 2
SYMATTR InstName Amplifier
SYMATTR Value SINE(0 40 {freq})
SYMBOL res 0 160 R0
SYMATTR InstName Speaker
SYMATTR Value 6R
SYMBOL res 704 144 R0
SYMATTR InstName R1
SYMATTR Value 47k
SYMBOL cap 944 112 R90
WINDOW 0 0 32 VBottom 2
WINDOW 3 32 32 VTop 2
SYMATTR InstName C1
SYMATTR Value 10µ
SYMBOL voltage 1632 160 R0
WINDOW 123 0 0 Left 2
WINDOW 39 0 0 Left 2
SYMATTR InstName TeensyVoltageRegulator
SYMATTR Value 3v3
SYMBOL res 704 112 R90
WINDOW 0 0 56 VBottom 2
WINDOW 3 32 56 VTop 2
SYMATTR InstName R5
SYMATTR Value 220k
SYMBOL res 1040 144 R0
SYMATTR InstName R2
SYMATTR Value 20k
SYMBOL res 1040 0 R0
SYMATTR InstName R3
SYMATTR Value 20k
SYMBOL cap 1392 160 R0
SYMATTR InstName C2
SYMATTR Value 10p
SYMBOL res 1296 144 R0
SYMATTR InstName R4
SYMATTR Value 1Meg
TEXT -936 224 Left 2 !.step dec param freq 20 20000 1\n#.param freq 1k
TEXT -938 156 Left 2 !.tran 0.1
TEXT -416 56 Left 2 ;Speaker System
TEXT 376 -232 Left 2 ;Sampling System
TEXT 592 56 Left 2 ;Input voltage divider
TEXT 848 32 Left 2 ;Decoupling\nand filtering
TEXT 992 -104 Left 2 ;Offset
TEXT 1280 64 Left 2 ;ADC and parasitics
TEXT -8 32 Left 2 ;120W maximum\nat 6 Ohms
RECTANGLE Normal 192 368 -416 80 2
RECTANGLE Normal 1984 368 368 -208 2
RECTANGLE Normal 800 336 592 80 2
RECTANGLE Normal 960 336 864 80 2
RECTANGLE Normal 1152 336 992 -80 2
RECTANGLE Normal 1536 336 1280 80 2
